Version 4
SHEET 1 1324 680
WIRE 544 304 352 304
WIRE 608 304 544 304
WIRE 720 304 608 304
WIRE 816 304 800 304
WIRE 144 320 112 320
WIRE 288 320 144 320
WIRE 544 336 352 336
WIRE 576 336 544 336
WIRE 576 464 576 336
FLAG 816 384 0
FLAG 576 544 0
FLAG 32 320 0
FLAG 144 320 vDrain
FLAG 544 304 vGate
FLAG 544 336 vSource
FLAG 608 224 0
SYMBOL Voltage 816 288 R0
SYMATTR InstName VGS
SYMATTR Value PWL(.1 0 .3 37 1.3 37 3 0)
SYMBOL Voltage 128 320 R90
WINDOW 0 -32 56 VBottom 2
WINDOW 3 32 56 VTop 2
SYMATTR InstName Batt
SYMATTR Value 17
SYMBOL Res 592 560 R180
WINDOW 0 36 76 Left 2
WINDOW 3 36 40 Left 2
SYMATTR InstName Load
SYMATTR Value .17
SYMBOL Res 592 208 R0
SYMATTR InstName R1
SYMATTR Value 10000
SYMBOL Res 816 288 R90
WINDOW 0 0 56 VBottom 2
WINDOW 3 32 56 VTop 2
SYMATTR InstName R3
SYMATTR Value 220
SYMBOL AutoGenerated/N0602 320 320 R0
WINDOW 0 2 -39 Bottom 2
SYMATTR InstName U1
TEXT 264 200 Left 2 !.tran 3000ms
