Version 4
SHEET 1 3864 680
WIRE 544 304 496 304
WIRE 608 304 544 304
WIRE 720 304 608 304
WIRE 816 304 800 304
WIRE 144 320 112 320
WIRE 432 320 144 320
WIRE 544 336 496 336
WIRE 576 336 544 336
WIRE 576 464 576 336
FLAG 816 384 0
FLAG 576 544 0
FLAG 32 320 0
FLAG 144 320 vDrain
FLAG 544 304 vGate
FLAG 544 336 vSource
FLAG 608 224 0
SYMBOL Voltage 816 288 R0
SYMATTR InstName VGS
SYMATTR Value PWL(0ms 0V 100ms 0V 200ms 17V 300ms 17V 400ms 20.3V 500ms 20.3V 600ms 22V 700ms 22V 800ms 23V 900ms 23V 1000ms 24V 1100ms 24V 1200ms 25V 1300ms 25V 1400ms 26V 1500ms 26V 1600ms 27V 1700ms 27V 1800ms 37V 1900ms 37V 2000ms 0V)
SYMBOL Voltage 576 448 R0
SYMATTR InstName Batt
SYMATTR Value 17
SYMBOL Res 128 304 R90
WINDOW 0 0 56 VBottom 2
WINDOW 3 32 56 VTop 2
SYMATTR InstName Load
SYMATTR Value .17
SYMBOL Res 592 208 R0
SYMATTR InstName R1
SYMATTR Value 10000
SYMBOL Res 816 288 R90
WINDOW 0 0 56 VBottom 2
WINDOW 3 32 56 VTop 2
SYMATTR InstName R3
SYMATTR Value 1
SYMBOL AutoGenerated/SiRS4301DP 464 320 R0
SYMATTR InstName U1
TEXT 264 200 Left 2 !.tran 3000ms
